            TRNSYS - the TRaNsient SYstem Simulation program

   The Solar Energy Lab at the University of Wisconsin - Madison, USA
Le Centre Scientifique et Technique du Batiment, Sophia Antipolis, France
           Transsolar Energietechnik GmBH, Stuttgart, Germany
        Thermal Energy System Specialists, LLC, Madison Wisconsin, USA

                           Release 18.04.0001
                           User ID  18-D0687

Listing file for: "C:\Users\lbarnic\OneDrive - Fraunhofer\A_Bearbeitung\9_Parameterstudie_REP\9_NT_WN\V6_20_Niedertemperatur\II_HT_WN.dck"
 
*** Notice at time        :         0.000000
    Generated by Unit     : Not applicable or not available
    Generated by Type     : Not applicable or not available
    Message               : The TRNSYS Executable (TRNExe.exe) and main DLL (TRNDll.dll) are located in "C:\TRNSYS18\Exe"
 

 *** Pre-Processing the TRNSYS EQUATIONs and CONSTANTs to check for fatal errors.

 *** Pre-Processing of EQUATIONs and CONSTANTs completed with no fatal errors found.

 *** Evaluating the EQUATIONs and CONSTANTs to determine their initial values.

 *** Finished evaluating the EQUATIONs and CONSTANTs and ready to begin processing the remainder of the TRNSYS input file.

  VERSION        18
*******************************************************************************                                                                                                                                                                                                                                                                                                                                                                                                                                                                                                                                                                                                                                                                                                                                                                                                                                                                                                                                                         
*** TRNSYS input file (deck) generated by TrnsysStudio                                                                                                                                                                                                                                                                                                                                                                                                                                                                                                                                                                                                                                                                                                                                                                                                                                                                                                                                                                                  
*** on Thursday, January 09, 2025 at 20:33                                                                                                                                                                                                                                                                                                                                                                                                                                                                                                                                                                                                                                                                                                                                                                                                                                                                                                                                                                                              
*** from TrnsysStudio project: C:\Users\lbarnic\OneDrive - Fraunhofer\A_Bearbeitung\9_Parameterstudie_REP\9_NT_WN\V6_20_Niedertemperatur\II_HT_WN.tpf                                                                                                                                                                                                                                                                                                                                                                                                                                                                                                                                                                                                                                                                                                                                                                                                                                                                                   
***                                                                                                                                                                                                                                                                                                                                                                                                                                                                                                                                                                                                                                                                                                                                                                                                                                                                                                                                                                                                                                     
*** If you edit this file, use the File/Import TRNSYS Input File function in                                                                                                                                                                                                                                                                                                                                                                                                                                                                                                                                                                                                                                                                                                                                                                                                                                                                                                                                                            
*** TrnsysStudio to update the project.                                                                                                                                                                                                                                                                                                                                                                                                                                                                                                                                                                                                                                                                                                                                                                                                                                                                                                                                                                                                 
***                                                                                                                                                                                                                                                                                                                                                                                                                                                                                                                                                                                                                                                                                                                                                                                                                                                                                                                                                                                                                                     
*** If you have problems, questions or suggestions please contact your local                                                                                                                                                                                                                                                                                                                                                                                                                                                                                                                                                                                                                                                                                                                                                                                                                                                                                                                                                            
*** TRNSYS distributor or mailto:software@cstb.fr                                                                                                                                                                                                                                                                                                                                                                                                                                                                                                                                                                                                                                                                                                                                                                                                                                                                                                                                                                                       
***                                                                                                                                                                                                                                                                                                                                                                                                                                                                                                                                                                                                                                                                                                                                                                                                                                                                                                                                                                                                                                     
*******************************************************************************                                                                                                                                                                                                                                                                                                                                                                                                                                                                                                                                                                                                                                                                                                                                                                                                                                                                                                                                                         
*******************************************************************************                                                                                                                                                                                                                                                                                                                                                                                                                                                                                                                                                                                                                                                                                                                                                                                                                                                                                                                                                         
*** Units                                                                                                                                                                                                                                                                                                                                                                                                                                                                                                                                                                                                                                                                                                                                                                                                                                                                                                                                                                                                                               
*******************************************************************************                                                                                                                                                                                                                                                                                                                                                                                                                                                                                                                                                                                                                                                                                                                                                                                                                                                                                                                                                         
*******************************************************************************                                                                                                                                                                                                                                                                                                                                                                                                                                                                                                                                                                                                                                                                                                                                                                                                                                                                                                                                                         
*** Control cards                                                                                                                                                                                                                                                                                                                                                                                                                                                                                                                                                                                                                                                                                                                                                                                                                                                                                                                                                                                                                       
*******************************************************************************                                                                                                                                                                                                                                                                                                                                                                                                                                                                                                                                                                                                                                                                                                                                                                                                                                                                                                                                                         
* START, STOP and STEP                                                                                                                                                                                                                                                                                                                                                                                                                                                                                                                                                                                                                                                                                                                                                                                                                                                                                                                                                                                                                  

  CONSTANTS   3
     START=0
     STOP=8760
     STEP=15/60
! Start time	End time	Time step                                                                                                                                                                                                                                                                                                                                                                                                                                                                                                                                                                                                                                                                                                                                                                                                                                                                                                                                                                          

  SIMULATION         0.0000000000000000E+00    8.7600000000000000E+03    2.5000000000000000E-01
! Integration	 Convergence                                                                                                                                                                                                                                                                                                                                                                                                                                                                                                                                                                                                                                                                                                                                                                                                                                                                                                                                                                                     

  TOLERANCES         1.0000000000000002E-03    1.0000000000000002E-03
! Max iterations	Max warnings	Trace limit                                                                                                                                                                                                                                                                                                                                                                                                                                                                                                                                                                                                                                                                                                                                                                                                                                                                                                                                                                         

  LIMITS       250       250       251
! TRNSYS numerical integration solver method                                                                                                                                                                                                                                                                                                                                                                                                                                                                                                                                                                                                                                                                                                                                                                                                                                                                                                                                                                                  

  DFQ   1
! TRNSYS output file width, number of characters                                                                                                                                                                                                                                                                                                                                                                                                                                                                                                                                                                                                                                                                                                                                                                                                                                                                                                                                                                            

  WIDTH    80
! NOLIST statement                                                                                                                                                                                                                                                                                                                                                                                                                                                                                                                                                                                                                                                                                                                                                                                                                                                                                                                                                                                                            

  LIST
! MAP statement                                                                                                                                                                                                                                                                                                                                                                                                                                                                                                                                                                                                                                                                                                                                                                                                                                                                                                                                                                                                                    
! Solver statement	Minimum relaxation factor	Maximum relaxation factor                                                                                                                                                                                                                                                                                                                                                                                                                                                                                                                                                                                                                                                                                                                                                                                                                                                                                                                                                  

  SOLVER  0
    1.000000000000000    
    1.000000000000000    
! Nan DEBUG statement                                                                                                                                                                                                                                                                                                                                                                                                                                                                                                                                                                                                                                                                                                                                                                                                                                                                                                                                                                                                    

  NAN_CHECK   0
! Overwrite DEBUG statement                                                                                                                                                                                                                                                                                                                                                                                                                                                                                                                                                                                                                                                                                                                                                                                                                                                                                                                                                                                         

  OVERWRITE_CHECK   0
! disable time report                                                                                                                                                                                                                                                                                                                                                                                                                                                                                                                                                                                                                                                                                                                                                                                                                                                                                                                                                                                                   

  TIME_REPORT   0
! EQUATION SOLVER statement                                                                                                                                                                                                                                                                                                                                                                                                                                                                                                                                                                                                                                                                                                                                                                                                                                                                                                                                                                                               

  EQUATION SOLVING METHOD         0
* User defined CONSTANTS                                                                                                                                                                                                                                                                                                                                                                                                                                                                                                                                                                                                                                                                                                                                                                                                                                                                                                                                                                                                                
*$USER_CONSTANTS                                                                                                                                                                                                                                                                                                                                                                                                                                                                                                                                                                                                                                                                                                                                                                                                                                                                                                                                                                                                                        
*$USER_CONSTANTS_END                                                                                                                                                                                                                                                                                                                                                                                                                                                                                                                                                                                                                                                                                                                                                                                                                                                                                                                                                                                                                    
* Model "electr_profiles" (Type 9)                                                                                                                                                                                                                                                                                                                                                                                                                                                                                                                                                                                                                                                                                                                                                                                                                                                                                                                                                                                                      
*                                                                                                                                                                                                                                                                                                                                                                                                                                                                                                                                                                                                                                                                                                                                                                                                                                                                                                                                                                                                                                       

  UNIT    7     TYPE    9     electr_profiles                               
*$UNIT_NAME electr_profiles                                                                                                                                                                                                                                                                                                                                                                                                                                                                                                                                                                                                                                                                                                                                                                                                                                                                                                                                                                                                             
*$MODEL .\Utility\Data Readers\Generic Data Files\First Line is Simulation Start\Free Format\Type9a.tmf                                                                                                                                                                                                                                                                                                                                                                                                                                                                                                                                                                                                                                                                                                                                                                                                                                                                                                                                 
*$POSITION 1537 190                                                                                                                                                                                                                                                                                                                                                                                                                                                                                                                                                                                                                                                                                                                                                                                                                                                                                                                                                                                                                     
*$LAYER Main #                                                                                                                                                                                                                                                                                                                                                                                                                                                                                                                                                                                                                                                                                                                                                                                                                                                                                                                                                                                                                          
       PARAMETERS  22
! 1 Mode                                                                                                                                                                                                                                                                                                                                                                                                                                                                                                                                                                                                                                                                                                                                                                                                                                                                                                                                                                                                                             
! 2 Header Lines to Skip                                                                                                                                                                                                                                                                                                                                                                                                                                                                                                                                                                                                                                                                                                                                                                                                                                                                                                                                                                                                             
! 3 No. of values to read                                                                                                                                                                                                                                                                                                                                                                                                                                                                                                                                                                                                                                                                                                                                                                                                                                                                                                                                                                                                            
! 4 Time interval of data                                                                                                                                                                                                                                                                                                                                                                                                                                                                                                                                                                                                                                                                                                                                                                                                                                                                                                                                                                                                         
! 5 Interpolate or not?-1                                                                                                                                                                                                                                                                                                                                                                                                                                                                                                                                                                                                                                                                                                                                                                                                                                                                                                                                                                                                            
! 6 Multiplication factor-1                                                                                                                                                                                                                                                                                                                                                                                                                                                                                                                                                                                                                                                                                                                                                                                                                                                                                                                                                                                                        
! 7 Addition factor-1                                                                                                                                                                                                                                                                                                                                                                                                                                                                                                                                                                                                                                                                                                                                                                                                                                                                                                                                                                                                                
! 8 Average or instantaneous value-1                                                                                                                                                                                                                                                                                                                                                                                                                                                                                                                                                                                                                                                                                                                                                                                                                                                                                                                                                                                                 
! 9 Interpolate or not?-2                                                                                                                                                                                                                                                                                                                                                                                                                                                                                                                                                                                                                                                                                                                                                                                                                                                                                                                                                                                                            
! 10 Multiplication factor-2                                                                                                                                                                                                                                                                                                                                                                                                                                                                                                                                                                                                                                                                                                                                                                                                                                                                                                                                                                                                       
! 11 Addition factor-2                                                                                                                                                                                                                                                                                                                                                                                                                                                                                                                                                                                                                                                                                                                                                                                                                                                                                                                                                                                                               
! 12 Average or instantaneous value-2                                                                                                                                                                                                                                                                                                                                                                                                                                                                                                                                                                                                                                                                                                                                                                                                                                                                                                                                                                                                
! 13 Interpolate or not?-3                                                                                                                                                                                                                                                                                                                                                                                                                                                                                                                                                                                                                                                                                                                                                                                                                                                                                                                                                                                                           
! 14 Multiplication factor-3                                                                                                                                                                                                                                                                                                                                                                                                                                                                                                                                                                                                                                                                                                                                                                                                                                                                                                                                                                                                       
! 15 Addition factor-3                                                                                                                                                                                                                                                                                                                                                                                                                                                                                                                                                                                                                                                                                                                                                                                                                                                                                                                                                                                                               
! 16 Average or instantaneous value-3                                                                                                                                                                                                                                                                                                                                                                                                                                                                                                                                                                                                                                                                                                                                                                                                                                                                                                                                                                                                
! 17 Interpolate or not?-4                                                                                                                                                                                                                                                                                                                                                                                                                                                                                                                                                                                                                                                                                                                                                                                                                                                                                                                                                                                                           
! 18 Multiplication factor-4                                                                                                                                                                                                                                                                                                                                                                                                                                                                                                                                                                                                                                                                                                                                                                                                                                                                                                                                                                                                       
! 19 Addition factor-4                                                                                                                                                                                                                                                                                                                                                                                                                                                                                                                                                                                                                                                                                                                                                                                                                                                                                                                                                                                                               
! 20 Average or instantaneous value-4                                                                                                                                                                                                                                                                                                                                                                                                                                                                                                                                                                                                                                                                                                                                                                                                                                                                                                                                                                                                
! 21 Logical unit for input file                                                                                                                                                                                                                                                                                                                                                                                                                                                                                                                                                                                                                                                                                                                                                                                                                                                                                                                                                                                                    
! 22 Free format mode                                                                                                                                                                                                                                                                                                                                                                                                                                                                                                                                                                                                                                                                                                                                                                                                                                                                                                                                                                                                               
       2.0000000000000000E+00    1.0000000000000000E+00    4.0000000000000000E+00    2.5000000000000000E-01    1.0000000000000000E+00
       1.0000000000000000E+00    0.0000000000000000E+00    1.0000000000000000E+00    1.0000000000000000E+00    1.0000000000000000E+00
       0.0000000000000000E+00    1.0000000000000000E+00    1.0000000000000000E+00    1.0000000000000000E+00    0.0000000000000000E+00
       1.0000000000000000E+00    1.0000000000000000E+00    1.0000000000000000E+00    0.0000000000000000E+00    1.0000000000000000E+00
       3.6000000000000000E+01   -1.0000000000000000E+00
*** External files                                                                                                                                                                                                                                                                                                                                                                                                                                                                                                                                                                                                                                                                                                                                                                                                                                                                                                                                                                                                                      
  ASSIGN C:\Users\lbarnic\OneDrive - Fraunhofer\A_Bearbeitung\6_Gesamtsysteme_REP\Input_Data\Stromprofile\Output_Stromprofile.csv   36
*|? Input file name |1000                                                                                                                                                                                                                                                                                                                                                                                                                                                                                                                                                                                                                                                                                                                                                                                                                                                                                                                                                                                                               
*------------------------------------------------------------------------------                                                                                                                                                                                                                                                                                                                                                                                                                                                                                                                                                                                                                                                                                                                                                                                                                                                                                                                                                         
* Model "Plotter_Strom" (Type 65)                                                                                                                                                                                                                                                                                                                                                                                                                                                                                                                                                                                                                                                                                                                                                                                                                                                                                                                                                                                                       
*                                                                                                                                                                                                                                                                                                                                                                                                                                                                                                                                                                                                                                                                                                                                                                                                                                                                                                                                                                                                                                       

  UNIT    8     TYPE   65     Plotter_Strom                                 
*$UNIT_NAME Plotter_Strom                                                                                                                                                                                                                                                                                                                                                                                                                                                                                                                                                                                                                                                                                                                                                                                                                                                                                                                                                                                                               
*$MODEL .\Output\Online Plotter\Online Plotter With File\No Units\Type65c.tmf                                                                                                                                                                                                                                                                                                                                                                                                                                                                                                                                                                                                                                                                                                                                                                                                                                                                                                                                                           
*$POSITION 1537 377                                                                                                                                                                                                                                                                                                                                                                                                                                                                                                                                                                                                                                                                                                                                                                                                                                                                                                                                                                                                                     
*$LAYER Main #                                                                                                                                                                                                                                                                                                                                                                                                                                                                                                                                                                                                                                                                                                                                                                                                                                                                                                                                                                                                                          
       PARAMETERS  12
! 1 Nb. of left-axis variables                                                                                                                                                                                                                                                                                                                                                                                                                                                                                                                                                                                                                                                                                                                                                                                                                                                                                                                                                                                                      
! 2 Nb. of right-axis variables                                                                                                                                                                                                                                                                                                                                                                                                                                                                                                                                                                                                                                                                                                                                                                                                                                                                                                                                                                                                      
! 3 Left axis minimum                                                                                                                                                                                                                                                                                                                                                                                                                                                                                                                                                                                                                                                                                                                                                                                                                                                                                                                                                                                                              
! 4 Left axis maximum                                                                                                                                                                                                                                                                                                                                                                                                                                                                                                                                                                                                                                                                                                                                                                                                                                                                                                                                                                                                               
! 5 Right axis minimum                                                                                                                                                                                                                                                                                                                                                                                                                                                                                                                                                                                                                                                                                                                                                                                                                                                                                                                                                                                                             
! 6 Right axis maximum                                                                                                                                                                                                                                                                                                                                                                                                                                                                                                                                                                                                                                                                                                                                                                                                                                                                                                                                                                                                          
[...]
 I  2.1000000000071857E+01  1.0000000000000000E+00  0.0000000000000000E+00  1.0000000000000000E+04
 O  2.6239177414568832E+01  0.0000000000000000E+00  2.1000000000071857E+01  5.8458514425659178E+02  0.0000000000000000E+00
 O  0.0000000000000000E+00  0.0000000000000000E+00

 *TRACE*  UNIT  86  TYPE  604  AT TIME   6.2997500000000000E+03  ITERATION    252  CALL   69876  ITERATIVE CALL
 P  2.7000000000000000E+01  3.8500000000000000E-02  4.0000000000000001E-02  9.3300000000000000E+02  1.2600000000000002E+00
 P  2.8999999999999999E+00  2.5749999999999999E-02  1.0000000000000000E+03  7.9200000000000020E-02  1.6900000000000001E-03
 P  9.9700000000000000E+02  2.2067999999999999E+00  4.1899999999999995E+00  1.9655999999999998E+00  1.0000000000000000E+02
 P  1.0000000000000000E+01  6.5000000000000000E+01  6.5000000000000000E+01  2.0000000000000000E+01  9.0000000000000002E-01
 P  8.0000000000000004E-01  0.0000000000000000E+00  2.0000000000000000E+00  1.0000000000000000E+00
 I  2.6203795061701523E+01  1.0000000000000000E+04  2.0000000000000000E+01  0.0000000000000000E+00  1.1564318485094772E+01
 I  1.0000000000000000E+00  6.4000000000000000E+01  0.0000000000000000E+00
 O  2.6210257178629870E+01  1.0000000000000000E+04  2.6203852246777434E+01  0.0000000000000000E+00  2.6206926388795033E+01
 O  2.6186630926425355E+01  1.7622355497767050E+01  1.1932328137891144E+01  4.8534658626481914E+01  1.8279904192777849E+02
 O  0.0000000000000000E+00  2.3133370055426042E+02  2.7076269929773810E+02  0.0000000000000000E+00 -4.7806688730629929E+02
 O -2.3434888246246899E+01 -3.4970526557091369E-01  4.0000000000000000E+00

 *TRACE*  UNIT  87  TYPE  604  AT TIME   6.2997500000000000E+03  ITERATION    252  CALL   73459  ITERATIVE CALL
 P  1.9000000000000000E+01  3.8500000000000000E-02  4.0000000000000001E-02  9.3300000000000000E+02  1.2600000000000002E+00
 P  2.8999999999999999E+00  2.5749999999999999E-02  1.0000000000000000E+03  7.9200000000000020E-02  1.6900000000000001E-03
 P  9.9700000000000000E+02  2.2067999999999999E+00  4.1899999999999995E+00  1.9655999999999998E+00  1.0000000000000000E+02
 P  1.0000000000000000E+01  6.5000000000000000E+01  6.5000000000000000E+01  2.0000000000000000E+01  9.0000000000000002E-01
 P  8.0000000000000004E-01  0.0000000000000000E+00  2.0000000000000000E+00  1.0000000000000000E+00
 I  2.6008946457799510E+01  8.0000000000000000E+03  2.0000000000000000E+01  0.0000000000000000E+00  1.1564318485094772E+01
 I  1.0000000000000000E+00  6.4000000000000000E+01  0.0000000000000000E+00
 O  2.6014912962357084E+01  8.0000000000000000E+03  2.6008996147828519E+01  0.0000000000000000E+00  2.6011785347680153E+01
 O  2.5991448614992418E+01  1.7541560471852321E+01  1.1927421907328036E+01  3.3697812026884002E+01  1.2692140875985862E+02
 O  0.0000000000000000E+00  1.6061922078674263E+02  1.9999723276986083E+02  0.0000000000000000E+00 -3.4385318822437767E+02
 O -1.6420748951264205E+01 -2.4592295775076364E-01  4.0000000000000000E+00

 *TRACE*  UNIT  88  TYPE  604  AT TIME   6.2997500000000000E+03  ITERATION    252  CALL   80179  ITERATIVE CALL
 P  2.5000000000000000E+01  7.3499999999999996E-02  7.4999999999999997E-02  9.3300000000000000E+02  1.2600000000000002E+00
 P  2.8999999999999999E+00  3.3250000000000009E-02  1.0000000000000000E+03  7.9200000000000020E-02  1.6900000000000001E-03
 P  9.9700000000000000E+02  2.2067999999999999E+00  4.1899999999999995E+00  1.9655999999999998E+00  1.0000000000000000E+02
 P  1.0000000000000000E+01  6.5000000000000000E+01  6.5000000000000000E+01  2.0000000000000000E+01  9.0000000000000002E-01
 P  8.0000000000000004E-01  0.0000000000000000E+00  2.0000000000000000E+00  1.0000000000000000E+00
 I  2.6887695844317626E+01  1.2000000000000000E+03  2.0000000000000000E+01  0.0000000000000000E+00  1.1564318485094772E+01
 I  1.0000000000000000E+00  6.4000000000000000E+01  0.0000000000000000E+00
 O  2.7151079422198919E+01  1.2000000000000000E+03  2.6890468204127416E+01  0.0000000000000000E+00  2.7020620908893878E+01
 O  2.6982777428159988E+01  1.8262922369473657E+01  1.1893021385668668E+01  6.2060774722611107E+01  2.3379209986798156E+02
 O  0.0000000000000000E+00  2.9585287459059265E+02  1.3242926295871375E+03  0.0000000000000000E+00 -1.5770563427031404E+03
 O -4.2005139315259989E+01 -7.3589702466108797E-01  7.0000000000000000E+00

 *TRACE*  UNIT  89  TYPE  604  AT TIME   6.2997500000000000E+03  ITERATION    252  CALL   96095  ITERATIVE CALL
 P  7.0000000000000000E+00  7.3499999999999996E-02  7.4999999999999997E-02  9.3300000000000000E+02  1.2600000000000002E+00
 P  2.8999999999999999E+00  3.3250000000000009E-02  1.0000000000000000E+03  7.9200000000000020E-02  1.6900000000000001E-03
 P  9.9700000000000000E+02  2.2067999999999999E+00  4.1899999999999995E+00  1.9655999999999998E+00  1.0000000000000000E+02
 P  1.0000000000000000E+01  6.5000000000000000E+01  6.5000000000000000E+01  2.0000000000000000E+01  9.0000000000000002E-01
 P  8.0000000000000004E-01  0.0000000000000000E+00  2.0000000000000000E+00  1.0000000000000000E+00
 I  2.6339144545831939E+01  1.1100000000000000E+04  2.0000000000000000E+01  0.0000000000000000E+00  1.1564318485094772E+01
 I  1.0000000000000000E+00  6.4000000000000000E+01  0.0000000000000000E+00
 O  2.6354865027024609E+01  1.1100000000000000E+04  2.6339299586104566E+01  0.0000000000000000E+00  2.6347036489778912E+01
 O  2.6333625377435450E+01  1.7988522465244699E+01  1.1879560863788369E+01  1.6664259966464069E+01  6.2781100242721656E+01
 O  0.0000000000000000E+00  7.9445360209185722E+01  7.3114385978987343E+02  0.0000000000000000E+00 -7.8921211509923796E+02
 O -2.0762171049500754E+01 -3.6390397107561767E-01  3.0000000000000000E+00

 *TRACE*  UNIT 101  TYPE  649  AT TIME   6.2997500000000000E+03  ITERATION    252  CALL   84170  ITERATIVE CALL
 P  2.0000000000000000E+00
 I  2.6014912962357084E+01  8.0000000000000000E+03  2.7151079422198919E+01  1.2000000000000000E+03
 O  2.6163108587553843E+01  9.2000000000000000E+03

 *TRACE*  UNIT 102  TYPE  649  AT TIME   6.2997500000000000E+03  ITERATION    252  CALL   68543  ITERATIVE CALL
 P  2.0000000000000000E+00
 I  2.6210257178629870E+01  1.0000000000000000E+04  2.7087207527759656E+01  9.0000000000000000E+02
 O  2.6282665923053433E+01  1.0900000000000000E+04

 *TRACE*  UNIT 108  TYPE   11  AT TIME   6.2997500000000000E+03  ITERATION    252  CALL   51398  ITERATIVE CALL
 P  1.0000000000000000E+00
 I  2.6136472064766949E+01  0.0000000000000000E+00  2.6136472064766949E+01  2.0000000000000000E+02
 O  2.6136472064766949E+01  2.0000000000000000E+02

 *TRACE*  UNIT 117  TYPE   11  AT TIME   6.2997500000000000E+03  ITERATION    252  CALL   51831  ITERATIVE CALL
 P  1.0000000000000000E+00
 I  2.6239177414568832E+01  0.0000000000000000E+00  2.6239177414568832E+01  3.0000000000000000E+02
 O  2.6239177414568832E+01  3.0000000000000000E+02
 
*** Warning at time       :      6299.750000
    Generated by Unit     : Not applicable or not available
    Generated by Type     : Not applicable or not available
    TRNSYS Message    441 : The inputs to the listed units have not converged at this timestep. The values at the last iteration will be used and the simulation will proceed.
    Reported information  : UNITS: 58  60  61  62  63  77  78  79  85  86  87  88  89 101 102 108 114 117
 
 
*** Notice at time        :      8759.000000
    Generated by Unit     :    91
    Generated by Type     :     9
    Message               : The specified component model has exhausted the data supply and has rewound the data file to begin reading from the top of the data file.
 
 
*** Notice at time        :      8759.000000
    Generated by Unit     :    93
    Generated by Type     :     9
    Message               : The specified component model has exhausted the data supply and has rewound the data file to begin reading from the top of the data file.
 
 
*** Notice at time        :      8759.250000
    Generated by Unit     :    40
    Generated by Type     :    15
    Message               : The specified component model has exhausted the data supply and has rewound the data file to begin reading from the top of the data file.
 
 
*** Notice at time        :      8759.250000
    Generated by Unit     :    41
    Generated by Type     :    15
    Message               : The specified component model has exhausted the data supply and has rewound the data file to begin reading from the top of the data file.
 
 
*** Notice at time        :      8759.250000
    Generated by Unit     :    42
    Generated by Type     :    15
    Message               : The specified component model has exhausted the data supply and has rewound the data file to begin reading from the top of the data file.
 
 
*** Notice at time        :      8759.250000
    Generated by Unit     :    71
    Generated by Type     :    15
    Message               : The specified component model has exhausted the data supply and has rewound the data file to begin reading from the top of the data file.
 
 
*** Notice at time        :      8759.250000
    Generated by Unit     :    51
    Generated by Type     :    15
    Message               : The specified component model has exhausted the data supply and has rewound the data file to begin reading from the top of the data file.
 
 
*** Notice at time        :      8759.250000
    Generated by Unit     :   112
    Generated by Type     :    15
    Message               : The specified component model has exhausted the data supply and has rewound the data file to begin reading from the top of the data file.
 
 
*** Notice at time        :      8759.250000
    Generated by Unit     :   120
    Generated by Type     :    15
    Message               : The specified component model has exhausted the data supply and has rewound the data file to begin reading from the top of the data file.
 
 
*** Notice at time        :      8759.250000
    Generated by Unit     :   123
    Generated by Type     :    15
    Message               : The specified component model has exhausted the data supply and has rewound the data file to begin reading from the top of the data file.
 
 
*** Notice at time        :      8759.500000
    Generated by Unit     :    10
    Generated by Type     :     9
    Message               : The specified component model has exhausted the data supply and has rewound the data file to begin reading from the top of the data file.
 
 
*** Notice at time        :      8759.500000
    Generated by Unit     :    59
    Generated by Type     :     9
    Message               : The specified component model has exhausted the data supply and has rewound the data file to begin reading from the top of the data file.
 
 
*** Notice at time        :      8759.500000
    Generated by Unit     :    65
    Generated by Type     :     9
    Message               : The specified component model has exhausted the data supply and has rewound the data file to begin reading from the top of the data file.
 
 
*** Notice at time        :      8759.750000
    Generated by Unit     :     7
    Generated by Type     :     9
    Message               : The specified component model has exhausted the data supply and has rewound the data file to begin reading from the top of the data file.
 
 
*** Notice at time        :      8759.750000
    Generated by Unit     :    43
    Generated by Type     :     9
    Message               : The specified component model has exhausted the data supply and has rewound the data file to begin reading from the top of the data file.
 
 
*** Warning at time       :      8760.000000
    Generated by Unit     :    40
    Generated by Type     :    15
    Message               : The calculated horizontal diffuse radiation exceeded the horizontal extraterrestrial radiation and was set to the extraterrestrial for 1 timesteps during the simulation.
 
 
*** Warning at time       :      8760.000000
    Generated by Unit     :    41
    Generated by Type     :    15
    Message               : The calculated horizontal diffuse radiation exceeded the horizontal extraterrestrial radiation and was set to the extraterrestrial for 1 timesteps during the simulation.
 
 
*** Warning at time       :      8760.000000
    Generated by Unit     :    42
    Generated by Type     :    15
    Message               : The calculated horizontal diffuse radiation exceeded the horizontal extraterrestrial radiation and was set to the extraterrestrial for 1 timesteps during the simulation.
 
 
*** Warning at time       :      8760.000000
    Generated by Unit     :    71
    Generated by Type     :    15
    Message               : The calculated horizontal diffuse radiation exceeded the horizontal extraterrestrial radiation and was set to the extraterrestrial for 1 timesteps during the simulation.
 
 
*** Warning at time       :      8760.000000
    Generated by Unit     :    51
    Generated by Type     :    15
    Message               : The calculated horizontal diffuse radiation exceeded the horizontal extraterrestrial radiation and was set to the extraterrestrial for 1 timesteps during the simulation.
 
 
*** Warning at time       :      8760.000000
    Generated by Unit     :   112
    Generated by Type     :    15
    Message               : The calculated horizontal diffuse radiation exceeded the horizontal extraterrestrial radiation and was set to the extraterrestrial for 1 timesteps during the simulation.
 
 
*** Warning at time       :      8760.000000
    Generated by Unit     :   120
    Generated by Type     :    15
    Message               : The calculated horizontal diffuse radiation exceeded the horizontal extraterrestrial radiation and was set to the extraterrestrial for 1 timesteps during the simulation.
 
 
*** Warning at time       :      8760.000000
    Generated by Unit     :   123
    Generated by Type     :    15
    Message               : The calculated horizontal diffuse radiation exceeded the horizontal extraterrestrial radiation and was set to the extraterrestrial for 1 timesteps during the simulation.
 
 
*** Notice at time        :      8760.000000
    Generated by Unit     :   113
    Generated by Type     :   340
    Message               : Qerrsum of V1.99E: -2.389270044579376E-006 [kJ]
 
 
*** Notice at time        :      8760.000000
    Generated by Unit     :   113
    Generated by Type     :   340
    Message               : Qerrsum of V1.99E: -2.389270044579376E-006 [kJ]
 
 
*** Notice at time        :      8760.000000
    Generated by Unit     :   113
    Generated by Type     :   340
    Message               : Qerrsum of V1.99E: -2.389270044579376E-006 [kJ]
 
 
*** Warning at time       :      8760.000000
    Generated by Unit     : Not applicable or not available
    Generated by Type     : Not applicable or not available
    Message               : The simulation failed to converge during 2 timesteps (0% of the time).
 
 
*** Warning at time       :      8760.000000
    Generated by Unit     :   109
    Generated by Type     :   143
    Message               : The file C:\TRNSYS18\Examples\Sample Catalog Files\WSHP_CCorr.dat was called 35039 times (99% of the time) with a first independent variable value below the range supplied in the data file. Data is interpolated within the data file range but is not extrapolated beyond the range. Performance of the equipment modeled by this UNIT may be incorrect.
 
 
*** Warning at time       :      8760.000000
    Generated by Unit     :   109
    Generated by Type     :   143
    Message               : The file C:\TRNSYS18\Examples\Sample Catalog Files\WSHP_CCorr.dat was called 35039 times (99% of the time) with a second independent variable value below the range supplied in the data file. Data is interpolated within the data file range but is not extrapolated beyond the range. Performance of the equipment modeled by this UNIT may be incorrect.
 


*********************************************************************************************************
The Following UNIT Numbers, TYPE Numbers, and Logical Units Were Used in the Supplied TRNSYS Input File: 
                         4             1                 4
                         5             9                 6
                         7            11                 9
                         8            15                36
                        10            25                37
                        11            31                38
                        13            50                39
                        19            65                42
                        26            77                43
                        27           103                44
                        34           114                45
                        40           115                49
                        41           143                50
                        42           156                51
                        43           165                52
                        45           340                53
                        46           525                60
                        47           604                61
                        49           649                62
                        50          1221                66
                        51          1323                69
                        52          1332                70
                        55                              72
                        58                              74
                        59                              75
                        60                              76
                        61                              77
                        62                              78
                        63                              79
                        64                              84
                        65                              85
                        67                              86
                        68                              87
                        69                              88
                        71                              89
                        72                              90
                        73                              91
                        74                              94
                        75                              95
                        76                              96
                        77                              97
                        78                              98
                        79                              99
                        80                             101
                        81                             102
                        83                             103
                        84                             104
                        85
                        86
                        87
                        88
                        89
                        91
                        93
                        95
                        98
                       100
                       101
                       102
                       103
                       107
                       108
                       109
                       110
                       112
                       113
                       114
                       116
                       117
                       119
                       120
                       121
                       122
                       123
                       124
                       125
                       127
                       129
                       132


*********************************************************************************************************
Total TRNSYS Calculation Time:                        235.5600 Seconds
